psse/psse-model/src/test/resources/IEEE_24_bus_rev35_exported.rawx
{
  "network" : {
    "caseid" : {
      "fields" : ["ic", "sbase", "rev", "xfrrat", "nxfrat", "basfrq", "title1", "title2"],
      "data" : [0,100.0,35,0.0,0.0,60.0,"",""]
    },
    "bus" : {
      "fields" : ["ibus", "name", "baskv", "ide", "area", "zone", "owner", "vm", "va", "nvhi", "nvlo", "evhi", "evlo"],
      "data" : [
        [1,"1           ",138.0,3,1,1,1,1.0,0.0,1.1,0.9,1.1,0.9],
        [2,"2           ",138.0,2,1,1,1,0.99783,0.0102,1.1,0.9,1.1,0.9],
        [3,"3           ",138.0,1,1,1,1,0.86395,10.7472,1.1,0.9,1.1,0.9],
        [4,"4           ",138.0,1,1,1,1,0.88721,-0.4167,1.1,0.9,1.1,0.9],
        [5,"5           ",138.0,1,1,1,1,0.92693,-0.2237,1.1,0.9,1.1,0.9],
        [6,"6           ",138.0,1,1,1,1,0.90837,0.3902,1.1,0.9,1.1,0.9],
        [7,"7           ",138.0,2,1,1,1,0.79668,-0.5811,1.1,0.9,1.1,0.9],
        [8,"8           ",230.0,1,1,1,1,0.80581,-0.8692,1.1,0.9,1.1,0.9],
        [9,"9           ",138.0,1,1,1,1,0.83528,4.9829,1.1,0.9,1.1,0.9],
        [10,"10          ",138.0,1,1,1,1,0.88216,3.7178,1.1,0.9,1.1,0.9],
        [11,"11          ",230.0,1,1,1,1,0.83645,12.6275,1.1,0.9,1.1,0.9],
        [12,"12          ",230.0,1,1,1,1,0.84016,11.7711,1.1,0.9,1.1,0.9],
        [13,"13          ",230.0,2,1,1,1,0.83731,15.4352,1.1,0.9,1.1,0.9],
        [14,"14          ",230.0,2,1,1,1,0.83675,18.741,1.1,0.9,1.1,0.9],
        [15,"15          ",230.0,2,1,1,1,0.88542,33.1896,1.1,0.9,1.1,0.9],
        [16,"16          ",230.0,2,1,1,1,0.86242,27.0625,1.1,0.9,1.1,0.9],
        [17,"17          ",230.0,1,1,1,1,0.89595,32.0375,1.1,0.9,1.1,0.9],
        [18,"18          ",230.0,2,1,1,1,0.90125,33.8753,1.1,0.9,1.1,0.9],
        [19,"19          ",230.0,1,1,1,1,0.85215,23.7833,1.1,0.9,1.1,0.9],
        [20,"20          ",230.0,1,1,1,1,0.84969,22.3112,1.1,0.9,1.1,0.9],
        [21,"21          ",230.0,2,1,1,1,0.91143,35.6336,1.1,0.9,1.1,0.9],
        [22,"22          ",230.0,2,1,1,1,1.0,37.4784,1.1,0.9,1.1,0.9],
        [23,"23          ",230.0,2,1,1,1,0.85006,22.0594,1.1,0.9,1.1,0.9],
        [24,"24          ",230.0,1,1,1,1,0.85521,24.7952,1.1,0.9,1.1,0.9]
      ]
    },
    "load" : {
      "fields" : ["ibus", "loadid", "stat", "area", "zone", "pl", "ql", "ip", "iq", "yp", "yq", "owner", "scale"],
      "data" : [
        [2,"1 ",1,1,1,97.0,20.0,0.0,0.0,0.0,0.0,1,1],
        [3,"1 ",1,1,1,90.0,19.0,0.0,0.0,0.0,0.0,1,1],
        [4,"1 ",1,1,1,74.0,15.0,0.0,0.0,0.0,0.0,1,1],
        [5,"1 ",1,1,1,71.0,14.0,0.0,0.0,0.0,0.0,1,1],
        [6,"1 ",1,1,1,68.0,14.0,0.0,0.0,0.0,0.0,1,1],
        [7,"1 ",1,1,1,62.0,13.0,0.0,0.0,0.0,0.0,1,1],
        [8,"1 ",1,1,1,85.0,18.0,0.0,0.0,0.0,0.0,1,1],
        [9,"1 ",1,1,1,175.0,36.0,0.0,0.0,0.0,0.0,1,1],
        [10,"1 ",1,1,1,100.0,23.0,0.0,0.0,0.0,0.0,1,1],
        [13,"1 ",1,1,1,130.0,27.0,0.0,0.0,0.0,0.0,1,1],
        [14,"1 ",1,1,1,92.0,20.0,0.0,0.0,0.0,0.0,1,1],
        [15,"1 ",1,1,1,158.0,32.0,0.0,0.0,0.0,0.0,1,1],
        [16,"1 ",1,1,1,100.0,20.0,0.0,0.0,0.0,0.0,1,1],
        [18,"1 ",1,1,1,162.0,34.0,0.0,0.0,0.0,0.0,1,1],
        [19,"1 ",1,1,1,90.0,18.0,0.0,0.0,0.0,0.0,1,1],
        [20,"1 ",1,1,1,65.0,13.0,0.0,0.0,0.0,0.0,1,1]
      ]
    },
    "generator" : {
      "fields" : ["ibus", "machid", "pg", "qg", "qt", "qb", "vs", "ireg", "nreg", "mbase", "zr", "zx", "rt", "xt", "gtap", "stat", "rmpct", "pt", "pb", "baslod", "o1", "f1", "o2", "f2", "o3", "f3", "o4", "f4", "wmod", "wpf"],
      "data" : [
        [1,"1 ",35.849,180.357,9900.0,-9900.0,1.0,0,0,100.0,0.0,1.0,0.0,0.0,1.0,1,100.0,1000.0,0.0,0,1,1.0,0,1.0,0,1.0,0,1.0,0,1.0],
        [2,"1 ",67.0,0.0,0.0,0.0,1.0,0,0,100.0,0.0,1.0,0.0,0.0,1.0,1,100.0,1000.0,0.0,0,1,1.0,0,1.0,0,1.0,0,1.0,0,1.0],
        [7,"1 ",64.0,0.0,0.0,0.0,1.0,0,0,100.0,0.0,1.0,0.0,0.0,1.0,1,100.0,1000.0,0.0,0,1,1.0,0,1.0,0,1.0,0,1.0,0,1.0],
        [13,"1 ",200.0,0.0,0.0,0.0,1.0,0,0,100.0,0.0,1.0,0.0,0.0,1.0,1,100.0,1000.0,0.0,0,1,1.0,0,1.0,0,1.0,0,1.0,0,1.0],
        [14,"1 ",0.0,0.0,0.0,0.0,1.0,0,0,100.0,0.0,1.0,0.0,0.0,1.0,1,100.0,1000.0,0.0,0,1,1.0,0,1.0,0,1.0,0,1.0,0,1.0],
        [15,"1 ",274.0,0.0,0.0,0.0,1.0,0,0,100.0,0.0,1.0,0.0,0.0,1.0,1,100.0,1000.0,0.0,0,1,1.0,0,1.0,0,1.0,0,1.0,0,1.0],
        [16,"1 ",245.0,0.0,0.0,0.0,1.0,0,0,100.0,0.0,1.0,0.0,0.0,1.0,1,100.0,1000.0,0.0,0,1,1.0,0,1.0,0,1.0,0,1.0,0,1.0],
        [18,"1 ",144.0,0.0,0.0,0.0,1.0,0,0,100.0,0.0,1.0,0.0,0.0,1.0,1,100.0,1000.0,0.0,0,1,1.0,0,1.0,0,1.0,0,1.0,0,1.0],
        [21,"1 ",294.0,0.0,0.0,0.0,1.0,0,0,100.0,0.0,1.0,0.0,0.0,1.0,1,100.0,1000.0,0.0,0,1,1.0,0,1.0,0,1.0,0,1.0,0,1.0],
        [22,"1 ",150.0,198.998,9900.0,-9900.0,1.0,0,0,100.0,0.0,1.0,0.0,0.0,1.0,1,100.0,1000.0,0.0,0,1,1.0,0,1.0,0,1.0,0,1.0,0,1.0],
        [23,"1 ",200.0,0.0,0.0,0.0,1.0,0,0,100.0,0.0,1.0,0.0,0.0,1.0,1,100.0,1000.0,0.0,0,1,1.0,0,1.0,0,1.0,0,1.0,0,1.0]
      ]
    },
    "acline" : {
      "fields" : ["ibus", "jbus", "ckt", "rpu", "xpu", "bpu", "name", "rate1", "rate2", "rate3", "rate4", "rate5", "rate6", "rate7", "rate8", "rate9", "rate10", "rate11", "rate12", "gi", "bi", "gj", "bj", "stat", "met", "len", "o1", "f1", "o2", "f2", "o3", "f3", "o4", "f4"],
      "data" : [
        [1,2,"1 ",7.0E-4,0.00123,6.5E-4," ",175.0,0.0,0.0,0.0,0.0,0.0,0.0,0.0,0.0,0.0,0.0,0.0,0.0,0.0,0.0,0.0,1,1,0.0,1,1.0,0,1.0,0,1.0,0,1.0],
        [3,1,"1 ",0.05419,0.21114,0.0613," ",175.0,0.0,0.0,0.0,0.0,0.0,0.0,0.0,0.0,0.0,0.0,0.0,0.0,0.0,0.0,0.0,1,1,0.0,1,1.0,0,1.0,0,1.0,0,1.0],
        [1,5,"1 ",0.02243,0.0849,0.0244," ",175.0,0.0,0.0,0.0,0.0,0.0,0.0,0.0,0.0,0.0,0.0,0.0,0.0,0.0,0.0,0.0,1,1,0.0,1,1.0,0,1.0,0,1.0,0,1.0],
        [2,4,"1 ",0.03361,0.1273,0.0366," ",175.0,0.0,0.0,0.0,0.0,0.0,0.0,0.0,0.0,0.0,0.0,0.0,0.0,0.0,0.0,0.0,1,1,0.0,1,1.0,0,1.0,0,1.0,0,1.0],
        [2,6,"1 ",0.05064,0.19201,0.0557," ",175.0,0.0,0.0,0.0,0.0,0.0,0.0,0.0,0.0,0.0,0.0,0.0,0.0,0.0,0.0,0.0,1,1,0.0,1,1.0,0,1.0,0,1.0,0,1.0],
        [3,9,"1 ",0.03148,0.11921,0.0343," ",175.0,0.0,0.0,0.0,0.0,0.0,0.0,0.0,0.0,0.0,0.0,0.0,0.0,0.0,0.0,0.0,1,1,0.0,1,1.0,0,1.0,0,1.0,0,1.0],
        [4,9,"1 ",0.02692,0.10779,0.0279," ",175.0,0.0,0.0,0.0,0.0,0.0,0.0,0.0,0.0,0.0,0.0,0.0,0.0,0.0,0.0,0.0,1,1,0.0,1,1.0,0,1.0,0,1.0,0,1.0],
        [10,6,"1 ",0.02262,0.03333,0.13029," ",175.0,0.0,0.0,0.0,0.0,0.0,0.0,0.0,0.0,0.0,0.0,0.0,0.0,0.0,0.0,0.0,1,1,0.0,1,1.0,0,1.0,0,1.0,0,1.0],
        [7,8,"1 ",0.01614,0.06103,0.0179," ",175.0,0.0,0.0,0.0,0.0,0.0,0.0,0.0,0.0,0.0,0.0,0.0,0.0,0.0,0.0,0.0,1,1,0.0,1,1.0,0,1.0,0,1.0,0,1.0],
        [8,9,"1 ",0.04234,0.16482,0.0478," ",175.0,0.0,0.0,0.0,0.0,0.0,0.0,0.0,0.0,0.0,0.0,0.0,0.0,0.0,0.0,0.0,1,1,0.0,1,1.0,0,1.0,0,1.0,0,1.0],
        [8,10,"1 ",0.04234,0.16482,0.0478," ",175.0,0.0,0.0,0.0,0.0,0.0,0.0,0.0,0.0,0.0,0.0,0.0,0.0,0.0,0.0,0.0,1,1,0.0,1,1.0,0,1.0,0,1.0,0,1.0],
        [11,13,"1 ",0.00583,0.04746,0.0959," ",500.0,0.0,0.0,0.0,0.0,0.0,0.0,0.0,0.0,0.0,0.0,0.0,0.0,0.0,0.0,0.0,1,1,0.0,1,1.0,0,1.0,0,1.0,0,1.0],
        [11,14,"1 ",0.00513,0.04172,0.0843," ",500.0,0.0,0.0,0.0,0.0,0.0,0.0,0.0,0.0,0.0,0.0,0.0,0.0,0.0,0.0,0.0,1,1,0.0,1,1.0,0,1.0,0,1.0,0,1.0],
        [12,13,"1 ",0.00583,0.0476,0.0959," ",500.0,0.0,0.0,0.0,0.0,0.0,0.0,0.0,0.0,0.0,0.0,0.0,0.0,0.0,0.0,0.0,1,1,0.0,1,1.0,0,1.0,0,1.0,0,1.0],
        [12,23,"1 ",0.01224,0.09644,0.1984," ",500.0,0.0,0.0,0.0,0.0,0.0,0.0,0.0,0.0,0.0,0.0,0.0,0.0,0.0,0.0,0.0,1,1,0.0,1,1.0,0,1.0,0,1.0,0,1.0],
        [23,13,"1 ",0.0106,0.08643,0.1752," ",500.0,0.0,0.0,0.0,0.0,0.0,0.0,0.0,0.0,0.0,0.0,0.0,0.0,0.0,0.0,0.0,1,1,0.0,1,1.0,0,1.0,0,1.0,0,1.0],
        [14,16,"1 ",0.00477,0.03884,0.0785," ",500.0,0.0,0.0,0.0,0.0,0.0,0.0,0.0,0.0,0.0,0.0,0.0,0.0,0.0,0.0,0.0,1,1,0.0,1,1.0,0,1.0,0,1.0,0,1.0],
        [16,15,"1 ",0.00212,0.17269,0.0349," ",500.0,0.0,0.0,0.0,0.0,0.0,0.0,0.0,0.0,0.0,0.0,0.0,0.0,0.0,0.0,0.0,1,1,0.0,1,1.0,0,1.0,0,1.0,0,1.0],
        [15,21,"1 ",0.00607,0.04899,0.1006," ",500.0,0.0,0.0,0.0,0.0,0.0,0.0,0.0,0.0,0.0,0.0,0.0,0.0,0.0,0.0,0.0,1,1,0.0,1,1.0,0,1.0,0,1.0,0,1.0],
        [21,15,"2 ",0.00607,0.04899,0.1006," ",500.0,0.0,0.0,0.0,0.0,0.0,0.0,0.0,0.0,0.0,0.0,0.0,0.0,0.0,0.0,0.0,1,1,0.0,1,1.0,0,1.0,0,1.0,0,1.0],
        [15,24,"1 ",0.00642,0.05187,0.1066," ",500.0,0.0,0.0,0.0,0.0,0.0,0.0,0.0,0.0,0.0,0.0,0.0,0.0,0.0,0.0,0.0,1,1,0.0,1,1.0,0,1.0,0,1.0,0,1.0],
        [16,17,"1 ",0.00318,0.0259,0.0523," ",500.0,0.0,0.0,0.0,0.0,0.0,0.0,0.0,0.0,0.0,0.0,0.0,0.0,0.0,0.0,0.0,1,1,0.0,1,1.0,0,1.0,0,1.0,0,1.0],
        [16,19,"1 ",0.00283,0.02302,0.0465," ",500.0,0.0,0.0,0.0,0.0,0.0,0.0,0.0,0.0,0.0,0.0,0.0,0.0,0.0,0.0,0.0,1,1,0.0,1,1.0,0,1.0,0,1.0,0,1.0],
        [17,18,"1 ",0.00177,0.01439,0.0291," ",500.0,0.0,0.0,0.0,0.0,0.0,0.0,0.0,0.0,0.0,0.0,0.0,0.0,0.0,0.0,0.0,1,1,0.0,1,1.0,0,1.0,0,1.0,0,1.0],
        [17,22,"1 ",0.01225,0.10527,0.2116," ",500.0,0.0,0.0,0.0,0.0,0.0,0.0,0.0,0.0,0.0,0.0,0.0,0.0,0.0,0.0,0.0,1,1,0.0,1,1.0,0,1.0,0,1.0,0,1.0],
        [18,21,"1 ",0.00331,0.02595,0.0533," ",500.0,0.0,0.0,0.0,0.0,0.0,0.0,0.0,0.0,0.0,0.0,0.0,0.0,0.0,0.0,0.0,1,1,0.0,1,1.0,0,1.0,0,1.0,0,1.0],
        [18,21,"2 ",0.00331,0.02595,0.0533," ",500.0,0.0,0.0,0.0,0.0,0.0,0.0,0.0,0.0,0.0,0.0,0.0,0.0,0.0,0.0,0.0,1,1,0.0,1,1.0,0,1.0,0,1.0,0,1.0],
        [19,20,"1 ",0.00505,0.03964,0.0814," ",500.0,0.0,0.0,0.0,0.0,0.0,0.0,0.0,0.0,0.0,0.0,0.0,0.0,0.0,0.0,0.0,1,1,0.0,1,1.0,0,1.0,0,1.0,0,1.0],
        [19,20,"2 ",0.00505,0.03964,0.0814," ",500.0,0.0,0.0,0.0,0.0,0.0,0.0,0.0,0.0,0.0,0.0,0.0,0.0,0.0,0.0,0.0,1,1,0.0,1,1.0,0,1.0,0,1.0,0,1.0],
        [20,23,"1 ",0.00276,0.02163,0.0444," ",500.0,0.0,0.0,0.0,0.0,0.0,0.0,0.0,0.0,0.0,0.0,0.0,0.0,0.0,0.0,0.0,1,1,0.0,1,1.0,0,1.0,0,1.0,0,1.0],
        [20,23,"2 ",0.00276,0.02163,0.0444," ",500.0,0.0,0.0,0.0,0.0,0.0,0.0,0.0,0.0,0.0,0.0,0.0,0.0,0.0,0.0,0.0,1,1,0.0,1,1.0,0,1.0,0,1.0,0,1.0],
        [21,22,"1 ",0.00829,0.06769,0.1367," ",500.0,0.0,0.0,0.0,0.0,0.0,0.0,0.0,0.0,0.0,0.0,0.0,0.0,0.0,0.0,0.0,1,1,0.0,1,1.0,0,1.0,0,1.0,0,1.0]
      ]
    },
    "transformer" : {
      "fields" : ["ibus", "jbus", "kbus", "ckt", "cw", "cz", "cm", "mag1", "mag2", "nmet", "name", "stat", "o1", "f1", "o2", "f2", "o3", "f3", "o4", "f4", "r1_2", "x1_2", "sbase1_2", "windv1", "nomv1", "ang1", "wdg1rate1", "wdg1rate2", "wdg1rate3", "wdg1rate4", "wdg1rate5", "wdg1rate6", "wdg1rate7", "wdg1rate8", "wdg1rate9", "wdg1rate10", "wdg1rate11", "wdg1rate12", "cod1", "cont1", "node1", "rma1", "rmi1", "vma1", "vmi1", "ntp1", "tab1", "cr1", "cx1", "windv2", "nomv2"],
      "data" : [
        [24,3,0,"1 ",1,1,1,0.0,0.0,2,"        ",1,1,1.0,0,1.0,0,1.0,0,1.0,0.0023,0.0839,100.0,1.0,230.0,0.0,400.0,0.0,0.0,0.0,0.0,0.0,0.0,0.0,0.0,0.0,0.0,0.0,0,0,0,1.5,0.51,1.5,0.51,159,0,0.0,0.0,1.0,230.0],
        [5,10,0,"1 ",1,1,1,0.0,0.0254,2,"        ",1,1,1.0,0,1.0,0,1.0,0,1.0,0.02334,0.08837,100.0,1.0,230.0,0.0,175.0,0.0,0.0,0.0,0.0,0.0,0.0,0.0,0.0,0.0,0.0,0.0,0,0,0,1.5,0.51,1.5,0.51,159,0,0.0,0.0,1.0,230.0],
        [11,9,0,"1 ",1,1,1,0.0,0.0,2,"        ",1,1,1.0,0,1.0,0,1.0,0,1.0,0.0023,0.0839,100.0,1.0,230.0,0.0,400.0,0.0,0.0,0.0,0.0,0.0,0.0,0.0,0.0,0.0,0.0,0.0,0,0,0,1.5,0.51,1.5,0.51,159,0,0.0,0.0,1.0,230.0],
        [9,12,0,"1 ",1,1,1,0.0,0.0,2,"        ",1,1,1.0,0,1.0,0,1.0,0,1.0,0.0023,0.0839,100.0,1.0,230.0,0.0,400.0,0.0,0.0,0.0,0.0,0.0,0.0,0.0,0.0,0.0,0.0,0.0,0,0,0,1.5,0.51,1.5,0.51,159,0,0.0,0.0,1.0,230.0],
        [11,10,0,"1 ",1,1,1,0.0,0.0,2,"        ",1,1,1.0,0,1.0,0,1.0,0,1.0,0.0023,0.0839,100.0,1.0,230.0,0.0,400.0,0.0,0.0,0.0,0.0,0.0,0.0,0.0,0.0,0.0,0.0,0.0,0,0,0,1.5,0.51,1.5,0.51,159,0,0.0,0.0,1.0,230.0],
        [12,10,0,"1 ",1,1,1,0.0,0.0,2,"        ",1,1,1.0,0,1.0,0,1.0,0,1.0,0.0023,0.0839,100.0,1.0,230.0,0.0,400.0,0.0,0.0,0.0,0.0,0.0,0.0,0.0,0.0,0.0,0.0,0.0,0,0,0,1.5,0.51,1.5,0.51,159,0,0.0,0.0,1.0,230.0]
      ]
    },
    "area" : {
      "fields" : ["iarea", "isw", "pdes", "ptol", "arname"],
      "data" : [
        [1,0,0.0,1.0,"1           "]
      ]
    },
    "zone" : {
      "fields" : ["izone", "zoname"],
      "data" : [
        [1,"1       "]
      ]
    },
    "owner" : {
      "fields" : ["iowner", "owname"],
      "data" : [
        [1,"1"]
      ]
    },
    "swshunt" : {
      "fields" : ["i", "id", "modsw", "adjm", "stat", "vswhi", "vswlo", "swreg", "nreg", "rmpct", "rmidnt", "binit", "s1", "n1", "b1"],
      "data" : [
        [1,"1",0,0,1,1.0,0.99,0,0,100.0,"        ",120.0,1,1,120.0],
        [6,"1",0,0,1,1.0,0.99,0,0,100.0,"        ",100.0,1,1,100.0]
      ]
    }
  }
}